<?xml version="1.0" encoding="UTF-8"?>

<!-- generated on 2019.3.11 14:50:36 by Netedit Version 0.32.0
<?xml version="1.0" encoding="UTF-8"?>

<configuration xmlns:xsi="http://www.w3.org/2001/XMLSchema-instance" xsi:noNamespaceSchemaLocation="http://sumo.dlr.de/xsd/netconvertConfiguration.xsd">

    <input>
        <sumo-net-file value="C:\Users\Remind\Documents\Master\Master_Year_2019\ITSC\Experiment\Cross\net.net.xml"/>
    </input>

    <output>
        <output-file value="C:\Users\Remind\Documents\Master\Master_Year_2019\ITSC\Experiment\Cross\net.net.xml"/>
    </output>

    <processing>
        <no-turnarounds value="true"/>
        <offset.disable-normalization value="true"/>
        <lefthand value="false"/>
        <junctions.corner-detail value="0"/>
        <rectangular-lane-cut value="false"/>
        <walkingareas value="false"/>
    </processing>

</configuration>
-->

<net version="0.27" xmlns:xsi="http://www.w3.org/2001/XMLSchema-instance" xsi:noNamespaceSchemaLocation="http://sumo.dlr.de/xsd/net_file.xsd">

    <location netOffset="500.00,500.00" convBoundary="0.00,0.00,1000.00,1000.00" origBoundary="-500.00,-500.00,500.00,500.00" projParameter="!"/>

    <edge id=":0_0" function="internal">
        <lane id=":0_0_0" index="0" speed="12.50" length="5.00" shape="491.75,511.35 491.56,509.99 490.98,509.02 490.01,508.44 488.65,508.25"/>
    </edge>
    <edge id=":0_1" function="internal">
        <lane id=":0_1_0" index="0" speed="12.50" length="22.70" shape="491.75,511.35 491.75,488.65"/>
        <lane id=":0_1_1" index="1" speed="12.50" length="22.70" shape="495.05,511.35 495.05,488.65"/>
    </edge>
    <edge id=":0_3" function="internal">
        <lane id=":0_3_0" index="0" speed="12.50" length="12.52" shape="498.35,511.35 499.16,505.66 501.60,501.60 503.35,500.55"/>
    </edge>
    <edge id=":0_16" function="internal">
        <lane id=":0_16_0" index="0" speed="12.50" length="8.44" shape="503.35,500.55 505.66,499.16 511.35,498.35"/>
    </edge>
    <edge id=":0_4" function="internal">
        <lane id=":0_4_0" index="0" speed="12.50" length="5.00" shape="511.35,508.25 509.99,508.44 509.02,509.02 508.44,509.99 508.25,511.35"/>
    </edge>
    <edge id=":0_5" function="internal">
        <lane id=":0_5_0" index="0" speed="12.50" length="22.70" shape="511.35,508.25 488.65,508.25"/>
        <lane id=":0_5_1" index="1" speed="12.50" length="22.70" shape="511.35,504.95 488.65,504.95"/>
    </edge>
    <edge id=":0_7" function="internal">
        <lane id=":0_7_0" index="0" speed="12.50" length="12.52" shape="511.35,501.65 505.66,500.84 501.60,498.40 500.55,496.65"/>
    </edge>
    <edge id=":0_17" function="internal">
        <lane id=":0_17_0" index="0" speed="12.50" length="8.44" shape="500.55,496.65 499.16,494.34 498.35,488.65"/>
    </edge>
    <edge id=":0_8" function="internal">
        <lane id=":0_8_0" index="0" speed="12.50" length="5.00" shape="508.25,488.65 508.44,490.01 509.02,490.98 509.99,491.56 511.35,491.75"/>
    </edge>
    <edge id=":0_9" function="internal">
        <lane id=":0_9_0" index="0" speed="12.50" length="22.70" shape="508.25,488.65 508.25,511.35"/>
        <lane id=":0_9_1" index="1" speed="12.50" length="22.70" shape="504.95,488.65 504.95,511.35"/>
    </edge>
    <edge id=":0_11" function="internal">
        <lane id=":0_11_0" index="0" speed="12.50" length="12.52" shape="501.65,488.65 500.84,494.34 498.40,498.40 496.65,499.45"/>
    </edge>
    <edge id=":0_18" function="internal">
        <lane id=":0_18_0" index="0" speed="12.50" length="8.44" shape="496.65,499.45 494.34,500.84 488.65,501.65"/>
    </edge>
    <edge id=":0_12" function="internal">
        <lane id=":0_12_0" index="0" speed="12.50" length="5.00" shape="488.65,491.75 490.01,491.56 490.98,490.98 491.56,490.01 491.75,488.65"/>
    </edge>
    <edge id=":0_13" function="internal">
        <lane id=":0_13_0" index="0" speed="12.50" length="22.70" shape="488.65,491.75 511.35,491.75"/>
        <lane id=":0_13_1" index="1" speed="12.50" length="22.70" shape="488.65,495.05 511.35,495.05"/>
    </edge>
    <edge id=":0_15" function="internal">
        <lane id=":0_15_0" index="0" speed="12.50" length="12.52" shape="488.65,498.35 494.34,499.16 498.40,501.60 499.45,503.35"/>
    </edge>
    <edge id=":0_19" function="internal">
        <lane id=":0_19_0" index="0" speed="12.50" length="8.44" shape="499.45,503.35 500.84,505.66 501.65,511.35"/>
    </edge>
    <edge id=":m1_0" function="internal">
        <lane id=":m1_0_0" index="0" speed="12.50" length="3.49" shape="248.50,495.05 251.50,491.75"/>
        <lane id=":m1_0_1" index="1" speed="12.50" length="3.49" shape="248.50,495.05 251.50,495.05"/>
        <lane id=":m1_0_2" index="2" speed="12.50" length="3.49" shape="248.50,498.35 251.50,498.35"/>
    </edge>
    <edge id=":m2_0" function="internal">
        <lane id=":m2_0_0" index="0" speed="12.50" length="3.49" shape="751.50,504.95 748.50,508.25"/>
        <lane id=":m2_0_1" index="1" speed="12.50" length="3.49" shape="751.50,504.95 748.50,504.95"/>
        <lane id=":m2_0_2" index="2" speed="12.50" length="3.49" shape="751.50,501.65 748.50,501.65"/>
    </edge>
    <edge id=":m3_0" function="internal">
        <lane id=":m3_0_0" index="0" speed="12.50" length="3.49" shape="504.95,248.50 508.25,251.50"/>
        <lane id=":m3_0_1" index="1" speed="12.50" length="3.49" shape="504.95,248.50 504.95,251.50"/>
        <lane id=":m3_0_2" index="2" speed="12.50" length="3.49" shape="501.65,248.50 501.65,251.50"/>
    </edge>
    <edge id=":m4_0" function="internal">
        <lane id=":m4_0_0" index="0" speed="12.50" length="3.49" shape="495.05,751.50 491.75,748.50"/>
        <lane id=":m4_0_1" index="1" speed="12.50" length="3.49" shape="495.05,751.50 495.05,748.50"/>
        <lane id=":m4_0_2" index="2" speed="12.50" length="3.49" shape="498.35,751.50 498.35,748.50"/>
    </edge>

    <edge id="1fi" from="1" to="m1" priority="46">
        <lane id="1fi_0" index="0" speed="11.11" length="248.50" shape="0.00,495.05 248.50,495.05"/>
        <lane id="1fi_1" index="1" speed="11.11" length="248.50" shape="0.00,498.35 248.50,498.35"/>
    </edge>
    <edge id="1o" from="0" to="1" priority="46">
        <lane id="1o_0" index="0" speed="11.11" length="488.65" shape="488.65,508.25 0.00,508.25"/>
        <lane id="1o_1" index="1" speed="11.11" length="488.65" shape="488.65,504.95 0.00,504.95"/>
        <lane id="1o_2" index="2" speed="11.11" length="488.65" shape="488.65,501.65 0.00,501.65"/>
    </edge>
    <edge id="1si" from="m1" to="0" priority="74">
        <lane id="1si_0" index="0" speed="13.89" length="237.15" shape="251.50,491.75 488.65,491.75"/>
        <lane id="1si_1" index="1" speed="13.89" length="237.15" shape="251.50,495.05 488.65,495.05"/>
        <lane id="1si_2" index="2" speed="13.89" length="237.15" shape="251.50,498.35 488.65,498.35"/>
    </edge>
    <edge id="2fi" from="2" to="m2" priority="46">
        <lane id="2fi_0" index="0" speed="11.11" length="248.50" shape="1000.00,504.95 751.50,504.95"/>
        <lane id="2fi_1" index="1" speed="11.11" length="248.50" shape="1000.00,501.65 751.50,501.65"/>
    </edge>
    <edge id="2o" from="0" to="2" priority="46">
        <lane id="2o_0" index="0" speed="11.11" length="488.65" shape="511.35,491.75 1000.00,491.75"/>
        <lane id="2o_1" index="1" speed="11.11" length="488.65" shape="511.35,495.05 1000.00,495.05"/>
        <lane id="2o_2" index="2" speed="11.11" length="488.65" shape="511.35,498.35 1000.00,498.35"/>
    </edge>
    <edge id="2si" from="m2" to="0" priority="74">
        <lane id="2si_0" index="0" speed="13.89" length="237.15" shape="748.50,508.25 511.35,508.25"/>
        <lane id="2si_1" index="1" speed="13.89" length="237.15" shape="748.50,504.95 511.35,504.95"/>
        <lane id="2si_2" index="2" speed="13.89" length="237.15" shape="748.50,501.65 511.35,501.65"/>
    </edge>
    <edge id="3fi" from="3" to="m3" priority="46">
        <lane id="3fi_0" index="0" speed="11.11" length="248.50" shape="504.95,0.00 504.95,248.50"/>
        <lane id="3fi_1" index="1" speed="11.11" length="248.50" shape="501.65,0.00 501.65,248.50"/>
    </edge>
    <edge id="3o" from="0" to="3" priority="46">
        <lane id="3o_0" index="0" speed="11.11" length="488.65" shape="491.75,488.65 491.75,0.00"/>
        <lane id="3o_1" index="1" speed="11.11" length="488.65" shape="495.05,488.65 495.05,0.00"/>
        <lane id="3o_2" index="2" speed="11.11" length="488.65" shape="498.35,488.65 498.35,0.00"/>
    </edge>
    <edge id="3si" from="m3" to="0" priority="74">
        <lane id="3si_0" index="0" speed="13.89" length="237.15" shape="508.25,251.50 508.25,488.65"/>
        <lane id="3si_1" index="1" speed="13.89" length="237.15" shape="504.95,251.50 504.95,488.65"/>
        <lane id="3si_2" index="2" speed="13.89" length="237.15" shape="501.65,251.50 501.65,488.65"/>
    </edge>
    <edge id="4fi" from="4" to="m4" priority="46">
        <lane id="4fi_0" index="0" speed="11.11" length="248.50" shape="495.05,1000.00 495.05,751.50"/>
        <lane id="4fi_1" index="1" speed="11.11" length="248.50" shape="498.35,1000.00 498.35,751.50"/>
    </edge>
    <edge id="4o" from="0" to="4" priority="46">
        <lane id="4o_0" index="0" speed="11.11" length="488.65" shape="508.25,511.35 508.25,1000.00"/>
        <lane id="4o_1" index="1" speed="11.11" length="488.65" shape="504.95,511.35 504.95,1000.00"/>
        <lane id="4o_2" index="2" speed="11.11" length="488.65" shape="501.65,511.35 501.65,1000.00"/>
    </edge>
    <edge id="4si" from="m4" to="0" priority="74">
        <lane id="4si_0" index="0" speed="13.89" length="237.15" shape="491.75,748.50 491.75,511.35"/>
        <lane id="4si_1" index="1" speed="13.89" length="237.15" shape="495.05,748.50 495.05,511.35"/>
        <lane id="4si_2" index="2" speed="13.89" length="237.15" shape="498.35,748.50 498.35,511.35"/>
    </edge>
<!-- 
    <tlLogic id="0" type="static" programID="0" offset="0">
        <phase duration="26" state="GGGrrrrrGGGrrrrr"/>
        <phase duration="3" state="yyyrrrrryyyrrrrr"/>
        <phase duration="13" state="rrrGrrrrrrrGrrrr"/>
        <phase duration="3" state="rrryrrrrrrryrrrr"/>
        <phase duration="26" state="rrrrGGGrrrrrGGGr"/>
        <phase duration="3" state="rrrryyyrrrrryyyr"/>
        <phase duration="13" state="rrrrrrrGrrrrrrrG"/>
        <phase duration="3" state="rrrrrrryrrrrrrry"/>
    </tlLogic> -->

    <tlLogic id="0" programID="my_program" offset="0" type="actuated">
        <param key="max-gap" value="3.0"/>
        <param key="detector-gap" value="2.0"/>
        <param key="show-detectors" value="true"/>
        <param key="file" value="NULL"/>
        <param key="freq" value="300"/>

        <phase duration="31" minDur="5" maxDur="45" state="GGGrrrrrGGGrrrrr"/>
        <phase duration="3" state="yyyrrrrryyyrrrrr"/>
        <phase duration="31" minDur="5" maxDur="45" state="rrrGrrrrrrrGrrrr"/>
        <phase duration="3" state="rrryrrrrrrryrrrr"/>
        <phase duration="31" minDur="5" maxDur="45" state="rrrrGGGrrrrrGGGr"/>
        <phase duration="3" state="rrrryyyrrrrryyyr"/>
        <phase duration="31" minDur="5" maxDur="45" state="rrrrrrrGrrrrrrrG"/>
        <phase duration="3" state="rrrrrrryrrrrrrry"/>
    </tlLogic>

    <junction id="0" type="traffic_light" x="500.00" y="500.00" incLanes="4si_0 4si_1 4si_2 2si_0 2si_1 2si_2 3si_0 3si_1 3si_2 1si_0 1si_1 1si_2" intLanes=":0_0_0 :0_1_0 :0_1_1 :0_16_0 :0_4_0 :0_5_0 :0_5_1 :0_17_0 :0_8_0 :0_9_0 :0_9_1 :0_18_0 :0_12_0 :0_13_0 :0_13_1 :0_19_0" shape="490.15,511.35 509.85,511.35 511.35,509.85 511.35,490.15 509.85,488.65 490.15,488.65 488.65,490.15 488.65,509.85">
        <request index="0" response="0000000000000000" foes="0000100001100000" cont="0"/>
        <request index="1" response="0000000000000000" foes="1111100011100000" cont="0"/>
        <request index="2" response="0000000000000000" foes="1111100011100000" cont="0"/>
        <request index="3" response="0000011100000000" foes="1110011111100000" cont="1"/>
        <request index="4" response="0000011000000000" foes="1000011000000000" cont="0"/>
        <request index="5" response="0000111000001111" foes="1000111000001111" cont="0"/>
        <request index="6" response="0000111000001111" foes="1000111000001111" cont="0"/>
        <request index="7" response="0111111000001110" foes="0111111000001110" cont="1"/>
        <request index="8" response="0000000000000000" foes="0110000000001000" cont="0"/>
        <request index="9" response="0000000000000000" foes="1110000011111000" cont="0"/>
        <request index="10" response="0000000000000000" foes="1110000011111000" cont="0"/>
        <request index="11" response="0000000000000111" foes="1110000011100111" cont="1"/>
        <request index="12" response="0000000000000110" foes="0000000010000110" cont="0"/>
        <request index="13" response="0000111100001110" foes="0000111110001110" cont="0"/>
        <request index="14" response="0000111100001110" foes="0000111110001110" cont="0"/>
        <request index="15" response="0000111001111110" foes="0000111001111110" cont="1"/>
    </junction>
    <junction id="1" type="dead_end" x="0.00" y="500.00" incLanes="1o_0 1o_1 1o_2" intLanes="" shape="0.00,499.95 0.00,509.85 0.00,500.05"/>
    <junction id="2" type="dead_end" x="1000.00" y="500.00" incLanes="2o_0 2o_1 2o_2" intLanes="" shape="1000.00,500.05 1000.00,490.15 1000.00,499.95"/>
    <junction id="3" type="dead_end" x="500.00" y="0.00" incLanes="3o_0 3o_1 3o_2" intLanes="" shape="500.05,0.00 490.15,0.00 499.95,0.00"/>
    <junction id="4" type="dead_end" x="500.00" y="1000.00" incLanes="4o_0 4o_1 4o_2" intLanes="" shape="499.95,1000.00 509.85,1000.00 500.05,1000.00"/>
    <junction id="m1" type="priority" x="250.00" y="500.00" incLanes="1fi_0 1fi_1" intLanes=":m1_0_0 :m1_0_1 :m1_0_2" shape="251.50,499.95 251.50,490.15 248.50,493.45 248.50,499.95">
        <request index="0" response="000" foes="000" cont="0"/>
        <request index="1" response="000" foes="000" cont="0"/>
        <request index="2" response="000" foes="000" cont="0"/>
    </junction>
    <junction id="m2" type="priority" x="750.00" y="500.00" incLanes="2fi_0 2fi_1" intLanes=":m2_0_0 :m2_0_1 :m2_0_2" shape="751.50,506.55 751.50,500.05 748.50,500.05 748.50,509.85">
        <request index="0" response="000" foes="000" cont="0"/>
        <request index="1" response="000" foes="000" cont="0"/>
        <request index="2" response="000" foes="000" cont="0"/>
    </junction>
    <junction id="m3" type="priority" x="500.00" y="250.00" incLanes="3fi_0 3fi_1" intLanes=":m3_0_0 :m3_0_1 :m3_0_2" shape="500.05,251.50 509.85,251.50 506.55,248.50 500.05,248.50">
        <request index="0" response="000" foes="000" cont="0"/>
        <request index="1" response="000" foes="000" cont="0"/>
        <request index="2" response="000" foes="000" cont="0"/>
    </junction>
    <junction id="m4" type="priority" x="500.00" y="750.00" incLanes="4fi_0 4fi_1" intLanes=":m4_0_0 :m4_0_1 :m4_0_2" shape="493.45,751.50 499.95,751.50 499.95,748.50 490.15,748.50">
        <request index="0" response="000" foes="000" cont="0"/>
        <request index="1" response="000" foes="000" cont="0"/>
        <request index="2" response="000" foes="000" cont="0"/>
    </junction>

    <junction id=":0_16_0" type="internal" x="503.35" y="500.55" incLanes=":0_3_0 3si_0 3si_1" intLanes=":0_5_0 :0_5_1 :0_7_0 :0_8_0 :0_9_0 :0_9_1 :0_13_0 :0_13_1 :0_15_0"/>
    <junction id=":0_17_0" type="internal" x="500.55" y="496.65" incLanes=":0_7_0 1si_0 1si_1" intLanes=":0_1_0 :0_1_1 :0_3_0 :0_9_0 :0_9_1 :0_11_0 :0_12_0 :0_13_0 :0_13_1"/>
    <junction id=":0_18_0" type="internal" x="496.65" y="499.45" incLanes=":0_11_0 4si_0 4si_1" intLanes=":0_0_0 :0_1_0 :0_1_1 :0_5_0 :0_5_1 :0_7_0 :0_13_0 :0_13_1 :0_15_0"/>
    <junction id=":0_19_0" type="internal" x="499.45" y="503.35" incLanes=":0_15_0 2si_0 2si_1" intLanes=":0_1_0 :0_1_1 :0_3_0 :0_4_0 :0_5_0 :0_5_1 :0_9_0 :0_9_1 :0_11_0"/>

    <connection from="1fi" to="1si" fromLane="0" toLane="0" via=":m1_0_0" dir="s" state="M"/>
    <connection from="1fi" to="1si" fromLane="0" toLane="1" via=":m1_0_1" dir="s" state="M"/>
    <connection from="1fi" to="1si" fromLane="1" toLane="2" via=":m1_0_2" dir="s" state="M"/>
    <connection from="1si" to="3o" fromLane="0" toLane="0" via=":0_12_0" tl="0" linkIndex="12" dir="r" state="o"/>
    <connection from="1si" to="2o" fromLane="0" toLane="0" via=":0_13_0" tl="0" linkIndex="13" dir="s" state="o"/>
    <connection from="1si" to="2o" fromLane="1" toLane="1" via=":0_13_1" tl="0" linkIndex="14" dir="s" state="o"/>
    <connection from="1si" to="4o" fromLane="2" toLane="2" via=":0_15_0" tl="0" linkIndex="15" dir="l" state="o"/>
    <connection from="2fi" to="2si" fromLane="0" toLane="0" via=":m2_0_0" dir="s" state="M"/>
    <connection from="2fi" to="2si" fromLane="0" toLane="1" via=":m2_0_1" dir="s" state="M"/>
    <connection from="2fi" to="2si" fromLane="1" toLane="2" via=":m2_0_2" dir="s" state="M"/>
    <connection from="2si" to="4o" fromLane="0" toLane="0" via=":0_4_0" tl="0" linkIndex="4" dir="r" state="o"/>
    <connection from="2si" to="1o" fromLane="0" toLane="0" via=":0_5_0" tl="0" linkIndex="5" dir="s" state="o"/>
    <connection from="2si" to="1o" fromLane="1" toLane="1" via=":0_5_1" tl="0" linkIndex="6" dir="s" state="o"/>
    <connection from="2si" to="3o" fromLane="2" toLane="2" via=":0_7_0" tl="0" linkIndex="7" dir="l" state="o"/>
    <connection from="3fi" to="3si" fromLane="0" toLane="0" via=":m3_0_0" dir="s" state="M"/>
    <connection from="3fi" to="3si" fromLane="0" toLane="1" via=":m3_0_1" dir="s" state="M"/>
    <connection from="3fi" to="3si" fromLane="1" toLane="2" via=":m3_0_2" dir="s" state="M"/>
    <connection from="3si" to="2o" fromLane="0" toLane="0" via=":0_8_0" tl="0" linkIndex="8" dir="r" state="o"/>
    <connection from="3si" to="4o" fromLane="0" toLane="0" via=":0_9_0" tl="0" linkIndex="9" dir="s" state="o"/>
    <connection from="3si" to="4o" fromLane="1" toLane="1" via=":0_9_1" tl="0" linkIndex="10" dir="s" state="o"/>
    <connection from="3si" to="1o" fromLane="2" toLane="2" via=":0_11_0" tl="0" linkIndex="11" dir="l" state="o"/>
    <connection from="4fi" to="4si" fromLane="0" toLane="0" via=":m4_0_0" dir="s" state="M"/>
    <connection from="4fi" to="4si" fromLane="0" toLane="1" via=":m4_0_1" dir="s" state="M"/>
    <connection from="4fi" to="4si" fromLane="1" toLane="2" via=":m4_0_2" dir="s" state="M"/>
    <connection from="4si" to="1o" fromLane="0" toLane="0" via=":0_0_0" tl="0" linkIndex="0" dir="r" state="o"/>
    <connection from="4si" to="3o" fromLane="0" toLane="0" via=":0_1_0" tl="0" linkIndex="1" dir="s" state="o"/>
    <connection from="4si" to="3o" fromLane="1" toLane="1" via=":0_1_1" tl="0" linkIndex="2" dir="s" state="o"/>
    <connection from="4si" to="2o" fromLane="2" toLane="2" via=":0_3_0" tl="0" linkIndex="3" dir="l" state="o"/>

    <connection from=":0_0" to="1o" fromLane="0" toLane="0" dir="r" state="M"/>
    <connection from=":0_1" to="3o" fromLane="0" toLane="0" dir="s" state="M"/>
    <connection from=":0_1" to="3o" fromLane="1" toLane="1" dir="s" state="M"/>
    <connection from=":0_3" to="2o" fromLane="0" toLane="2" via=":0_16_0" dir="l" state="m"/>
    <connection from=":0_16" to="2o" fromLane="0" toLane="2" dir="l" state="M"/>
    <connection from=":0_4" to="4o" fromLane="0" toLane="0" dir="r" state="M"/>
    <connection from=":0_5" to="1o" fromLane="0" toLane="0" dir="s" state="M"/>
    <connection from=":0_5" to="1o" fromLane="1" toLane="1" dir="s" state="M"/>
    <connection from=":0_7" to="3o" fromLane="0" toLane="2" via=":0_17_0" dir="l" state="m"/>
    <connection from=":0_17" to="3o" fromLane="0" toLane="2" dir="l" state="M"/>
    <connection from=":0_8" to="2o" fromLane="0" toLane="0" dir="r" state="M"/>
    <connection from=":0_9" to="4o" fromLane="0" toLane="0" dir="s" state="M"/>
    <connection from=":0_9" to="4o" fromLane="1" toLane="1" dir="s" state="M"/>
    <connection from=":0_11" to="1o" fromLane="0" toLane="2" via=":0_18_0" dir="l" state="m"/>
    <connection from=":0_18" to="1o" fromLane="0" toLane="2" dir="l" state="M"/>
    <connection from=":0_12" to="3o" fromLane="0" toLane="0" dir="r" state="M"/>
    <connection from=":0_13" to="2o" fromLane="0" toLane="0" dir="s" state="M"/>
    <connection from=":0_13" to="2o" fromLane="1" toLane="1" dir="s" state="M"/>
    <connection from=":0_15" to="4o" fromLane="0" toLane="2" via=":0_19_0" dir="l" state="m"/>
    <connection from=":0_19" to="4o" fromLane="0" toLane="2" dir="l" state="M"/>
    <connection from=":m1_0" to="1si" fromLane="0" toLane="0" dir="s" state="M"/>
    <connection from=":m1_0" to="1si" fromLane="1" toLane="1" dir="s" state="M"/>
    <connection from=":m1_0" to="1si" fromLane="2" toLane="2" dir="s" state="M"/>
    <connection from=":m2_0" to="2si" fromLane="0" toLane="0" dir="s" state="M"/>
    <connection from=":m2_0" to="2si" fromLane="1" toLane="1" dir="s" state="M"/>
    <connection from=":m2_0" to="2si" fromLane="2" toLane="2" dir="s" state="M"/>
    <connection from=":m3_0" to="3si" fromLane="0" toLane="0" dir="s" state="M"/>
    <connection from=":m3_0" to="3si" fromLane="1" toLane="1" dir="s" state="M"/>
    <connection from=":m3_0" to="3si" fromLane="2" toLane="2" dir="s" state="M"/>
    <connection from=":m4_0" to="4si" fromLane="0" toLane="0" dir="s" state="M"/>
    <connection from=":m4_0" to="4si" fromLane="1" toLane="1" dir="s" state="M"/>
    <connection from=":m4_0" to="4si" fromLane="2" toLane="2" dir="s" state="M"/>

</net>
