<routes>
<vType id="stdSKVehicle" accel="2.6" decel="4.5" sigma="0.5" length="5" minGap="2.5" maxSpeed="22.22" guiShape="passenger"/>
<route id="n2s" edges="4fi 4si 3o" />
<route id="n2e" edges="4fi 4si 2o" />
<route id="n2w" edges="4fi 4si 1o" />
<route id="e2w" edges="2fi 2si 1o" />
<route id="e2s" edges="2fi 2si 3o" />
<route id="e2n" edges="2fi 2si 4o" />
<route id="s2n" edges="3fi 3si 4o" />
<route id="s2w" edges="3fi 3si 1o" />
<route id="s2e" edges="3fi 3si 2o" />
<route id="w2e" edges="1fi 1si 2o" />
<route id="w2n" edges="1fi 1si 4o" />
<route id="w2s" edges="1fi 1si 3o" />
<vehicle id="w2n_0" type="stdSKVehicle" route="w2n" depart="0" departLane="random" departSpeed="random"/>
<vehicle id="w2e_1" type="stdSKVehicle" route="w2e" depart="1" departLane="random" departSpeed="random"/>
<vehicle id="w2s_2" type="stdSKVehicle" route="w2s" depart="4" departLane="random" departSpeed="random"/>
<vehicle id="s2w_3" type="stdSKVehicle" route="s2w" depart="5" departLane="random" departSpeed="random"/>
<vehicle id="w2e_4" type="stdSKVehicle" route="w2e" depart="6" departLane="random" departSpeed="random"/>
<vehicle id="w2e_5" type="stdSKVehicle" route="w2e" depart="7" departLane="random" departSpeed="random"/>
<vehicle id="s2n_6" type="stdSKVehicle" route="s2n" depart="8" departLane="random" departSpeed="random"/>
<vehicle id="n2e_7" type="stdSKVehicle" route="n2e" depart="9" departLane="random" departSpeed="random"/>
<vehicle id="e2s_8" type="stdSKVehicle" route="e2s" depart="9" departLane="random" departSpeed="random"/>
<vehicle id="w2s_9" type="stdSKVehicle" route="w2s" depart="9" departLane="random" departSpeed="random"/>
<vehicle id="n2s_10" type="stdSKVehicle" route="n2s" depart="10" departLane="random" departSpeed="random"/>
<vehicle id="e2w_11" type="stdSKVehicle" route="e2w" depart="10" departLane="random" departSpeed="random"/>
<vehicle id="e2n_12" type="stdSKVehicle" route="e2n" depart="10" departLane="random" departSpeed="random"/>
<vehicle id="n2e_13" type="stdSKVehicle" route="n2e" depart="11" departLane="random" departSpeed="random"/>
<vehicle id="w2e_14" type="stdSKVehicle" route="w2e" depart="12" departLane="random" departSpeed="random"/>
<vehicle id="n2s_15" type="stdSKVehicle" route="n2s" depart="13" departLane="random" departSpeed="random"/>
<vehicle id="n2s_16" type="stdSKVehicle" route="n2s" depart="14" departLane="random" departSpeed="random"/>
<vehicle id="w2n_17" type="stdSKVehicle" route="w2n" depart="14" departLane="random" departSpeed="random"/>
<vehicle id="e2w_18" type="stdSKVehicle" route="e2w" depart="15" departLane="random" departSpeed="random"/>
<vehicle id="s2n_19" type="stdSKVehicle" route="s2n" depart="15" departLane="random" departSpeed="random"/>
<vehicle id="w2e_20" type="stdSKVehicle" route="w2e" depart="16" departLane="random" departSpeed="random"/>
<vehicle id="w2s_21" type="stdSKVehicle" route="w2s" depart="16" departLane="random" departSpeed="random"/>
<vehicle id="n2s_22" type="stdSKVehicle" route="n2s" depart="17" departLane="random" departSpeed="random"/>
<vehicle id="n2s_23" type="stdSKVehicle" route="n2s" depart="19" departLane="random" departSpeed="random"/>
<vehicle id="e2s_24" type="stdSKVehicle" route="e2s" depart="19" departLane="random" departSpeed="random"/>
<vehicle id="w2e_25" type="stdSKVehicle" route="w2e" depart="20" departLane="random" departSpeed="random"/>
<vehicle id="n2s_26" type="stdSKVehicle" route="n2s" depart="21" departLane="random" departSpeed="random"/>
<vehicle id="e2w_27" type="stdSKVehicle" route="e2w" depart="21" departLane="random" departSpeed="random"/>
<vehicle id="w2s_28" type="stdSKVehicle" route="w2s" depart="22" departLane="random" departSpeed="random"/>
<vehicle id="e2w_29" type="stdSKVehicle" route="e2w" depart="23" departLane="random" departSpeed="random"/>
<vehicle id="s2n_30" type="stdSKVehicle" route="s2n" depart="23" departLane="random" departSpeed="random"/>
<vehicle id="w2e_31" type="stdSKVehicle" route="w2e" depart="23" departLane="random" departSpeed="random"/>
<vehicle id="n2s_32" type="stdSKVehicle" route="n2s" depart="24" departLane="random" departSpeed="random"/>
<vehicle id="e2w_33" type="stdSKVehicle" route="e2w" depart="25" departLane="random" departSpeed="random"/>
<vehicle id="e2w_34" type="stdSKVehicle" route="e2w" depart="28" departLane="random" departSpeed="random"/>
<vehicle id="n2w_35" type="stdSKVehicle" route="n2w" depart="30" departLane="random" departSpeed="random"/>
<vehicle id="e2w_36" type="stdSKVehicle" route="e2w" depart="31" departLane="random" departSpeed="random"/>
<vehicle id="e2w_37" type="stdSKVehicle" route="e2w" depart="33" departLane="random" departSpeed="random"/>
<vehicle id="n2w_38" type="stdSKVehicle" route="n2w" depart="36" departLane="random" departSpeed="random"/>
<vehicle id="e2w_39" type="stdSKVehicle" route="e2w" depart="36" departLane="random" departSpeed="random"/>
<vehicle id="s2n_40" type="stdSKVehicle" route="s2n" depart="36" departLane="random" departSpeed="random"/>
<vehicle id="n2s_41" type="stdSKVehicle" route="n2s" depart="37" departLane="random" departSpeed="random"/>
<vehicle id="e2s_42" type="stdSKVehicle" route="e2s" depart="37" departLane="random" departSpeed="random"/>
<vehicle id="s2n_43" type="stdSKVehicle" route="s2n" depart="38" departLane="random" departSpeed="random"/>
<vehicle id="s2n_44" type="stdSKVehicle" route="s2n" depart="39" departLane="random" departSpeed="random"/>
<vehicle id="s2w_45" type="stdSKVehicle" route="s2w" depart="40" departLane="random" departSpeed="random"/>
<vehicle id="s2n_46" type="stdSKVehicle" route="s2n" depart="41" departLane="random" departSpeed="random"/>
<vehicle id="w2n_47" type="stdSKVehicle" route="w2n" depart="41" departLane="random" departSpeed="random"/>
<vehicle id="e2w_48" type="stdSKVehicle" route="e2w" depart="42" departLane="random" departSpeed="random"/>
<vehicle id="w2e_49" type="stdSKVehicle" route="w2e" depart="42" departLane="random" departSpeed="random"/>
<vehicle id="e2n_50" type="stdSKVehicle" route="e2n" depart="43" departLane="random" departSpeed="random"/>
<vehicle id="w2e_51" type="stdSKVehicle" route="w2e" depart="43" departLane="random" departSpeed="random"/>
<vehicle id="s2n_52" type="stdSKVehicle" route="s2n" depart="44" departLane="random" departSpeed="random"/>
<vehicle id="e2w_53" type="stdSKVehicle" route="e2w" depart="45" departLane="random" departSpeed="random"/>
<vehicle id="e2w_54" type="stdSKVehicle" route="e2w" depart="46" departLane="random" departSpeed="random"/>
<vehicle id="n2s_55" type="stdSKVehicle" route="n2s" depart="47" departLane="random" departSpeed="random"/>
<vehicle id="n2s_56" type="stdSKVehicle" route="n2s" depart="48" departLane="random" departSpeed="random"/>
<vehicle id="e2w_57" type="stdSKVehicle" route="e2w" depart="48" departLane="random" departSpeed="random"/>
<vehicle id="w2n_58" type="stdSKVehicle" route="w2n" depart="48" departLane="random" departSpeed="random"/>
<vehicle id="w2e_59" type="stdSKVehicle" route="w2e" depart="50" departLane="random" departSpeed="random"/>
<vehicle id="w2s_60" type="stdSKVehicle" route="w2s" depart="50" departLane="random" departSpeed="random"/>
<vehicle id="w2s_61" type="stdSKVehicle" route="w2s" depart="51" departLane="random" departSpeed="random"/>
<vehicle id="e2w_62" type="stdSKVehicle" route="e2w" depart="53" departLane="random" departSpeed="random"/>
<vehicle id="w2e_63" type="stdSKVehicle" route="w2e" depart="54" departLane="random" departSpeed="random"/>
<vehicle id="e2s_64" type="stdSKVehicle" route="e2s" depart="55" departLane="random" departSpeed="random"/>
<vehicle id="n2w_65" type="stdSKVehicle" route="n2w" depart="57" departLane="random" departSpeed="random"/>
<vehicle id="e2n_66" type="stdSKVehicle" route="e2n" depart="57" departLane="random" departSpeed="random"/>
<vehicle id="e2w_67" type="stdSKVehicle" route="e2w" depart="58" departLane="random" departSpeed="random"/>
<vehicle id="w2e_68" type="stdSKVehicle" route="w2e" depart="58" departLane="random" departSpeed="random"/>
<vehicle id="e2w_69" type="stdSKVehicle" route="e2w" depart="59" departLane="random" departSpeed="random"/>
<vehicle id="e2s_70" type="stdSKVehicle" route="e2s" depart="59" departLane="random" departSpeed="random"/>
<vehicle id="n2w_71" type="stdSKVehicle" route="n2w" depart="60" departLane="random" departSpeed="random"/>
<vehicle id="e2w_72" type="stdSKVehicle" route="e2w" depart="60" departLane="random" departSpeed="random"/>
<vehicle id="n2s_73" type="stdSKVehicle" route="n2s" depart="61" departLane="random" departSpeed="random"/>
<vehicle id="e2w_74" type="stdSKVehicle" route="e2w" depart="61" departLane="random" departSpeed="random"/>
<vehicle id="e2n_75" type="stdSKVehicle" route="e2n" depart="61" departLane="random" departSpeed="random"/>
<vehicle id="e2s_76" type="stdSKVehicle" route="e2s" depart="62" departLane="random" departSpeed="random"/>
<vehicle id="s2n_77" type="stdSKVehicle" route="s2n" depart="62" departLane="random" departSpeed="random"/>
<vehicle id="n2s_78" type="stdSKVehicle" route="n2s" depart="63" departLane="random" departSpeed="random"/>
<vehicle id="n2s_79" type="stdSKVehicle" route="n2s" depart="64" departLane="random" departSpeed="random"/>
<vehicle id="w2e_80" type="stdSKVehicle" route="w2e" depart="64" departLane="random" departSpeed="random"/>
<vehicle id="n2s_81" type="stdSKVehicle" route="n2s" depart="69" departLane="random" departSpeed="random"/>
<vehicle id="e2w_82" type="stdSKVehicle" route="e2w" depart="69" departLane="random" departSpeed="random"/>
<vehicle id="n2s_83" type="stdSKVehicle" route="n2s" depart="70" departLane="random" departSpeed="random"/>
<vehicle id="e2w_84" type="stdSKVehicle" route="e2w" depart="70" departLane="random" departSpeed="random"/>
<vehicle id="w2s_85" type="stdSKVehicle" route="w2s" depart="70" departLane="random" departSpeed="random"/>
<vehicle id="e2w_86" type="stdSKVehicle" route="e2w" depart="71" departLane="random" departSpeed="random"/>
<vehicle id="n2s_87" type="stdSKVehicle" route="n2s" depart="72" departLane="random" departSpeed="random"/>
<vehicle id="e2w_88" type="stdSKVehicle" route="e2w" depart="72" departLane="random" departSpeed="random"/>
<vehicle id="e2s_89" type="stdSKVehicle" route="e2s" depart="73" departLane="random" departSpeed="random"/>
<vehicle id="s2n_90" type="stdSKVehicle" route="s2n" depart="73" departLane="random" departSpeed="random"/>
<vehicle id="e2w_91" type="stdSKVehicle" route="e2w" depart="75" departLane="random" departSpeed="random"/>
<vehicle id="e2w_92" type="stdSKVehicle" route="e2w" depart="76" departLane="random" departSpeed="random"/>
<vehicle id="e2w_93" type="stdSKVehicle" route="e2w" depart="77" departLane="random" departSpeed="random"/>
<vehicle id="w2e_94" type="stdSKVehicle" route="w2e" depart="77" departLane="random" departSpeed="random"/>
<vehicle id="w2n_95" type="stdSKVehicle" route="w2n" depart="77" departLane="random" departSpeed="random"/>
<vehicle id="s2w_96" type="stdSKVehicle" route="s2w" depart="78" departLane="random" departSpeed="random"/>
<vehicle id="w2e_97" type="stdSKVehicle" route="w2e" depart="78" departLane="random" departSpeed="random"/>
<vehicle id="s2n_98" type="stdSKVehicle" route="s2n" depart="79" departLane="random" departSpeed="random"/>
<vehicle id="s2n_99" type="stdSKVehicle" route="s2n" depart="80" departLane="random" departSpeed="random"/>
<vehicle id="w2s_100" type="stdSKVehicle" route="w2s" depart="81" departLane="random" departSpeed="random"/>
<vehicle id="s2n_101" type="stdSKVehicle" route="s2n" depart="82" departLane="random" departSpeed="random"/>
<vehicle id="e2w_102" type="stdSKVehicle" route="e2w" depart="83" departLane="random" departSpeed="random"/>
<vehicle id="w2e_103" type="stdSKVehicle" route="w2e" depart="85" departLane="random" departSpeed="random"/>
<vehicle id="s2n_104" type="stdSKVehicle" route="s2n" depart="86" departLane="random" departSpeed="random"/>
<vehicle id="s2e_105" type="stdSKVehicle" route="s2e" depart="86" departLane="random" departSpeed="random"/>
<vehicle id="w2e_106" type="stdSKVehicle" route="w2e" depart="86" departLane="random" departSpeed="random"/>
<vehicle id="n2s_107" type="stdSKVehicle" route="n2s" depart="87" departLane="random" departSpeed="random"/>
<vehicle id="e2w_108" type="stdSKVehicle" route="e2w" depart="87" departLane="random" departSpeed="random"/>
<vehicle id="w2e_109" type="stdSKVehicle" route="w2e" depart="87" departLane="random" departSpeed="random"/>
<vehicle id="w2s_110" type="stdSKVehicle" route="w2s" depart="87" departLane="random" departSpeed="random"/>
<vehicle id="n2s_111" type="stdSKVehicle" route="n2s" depart="88" departLane="random" departSpeed="random"/>
<vehicle id="e2w_112" type="stdSKVehicle" route="e2w" depart="88" departLane="random" departSpeed="random"/>
<vehicle id="n2s_113" type="stdSKVehicle" route="n2s" depart="89" departLane="random" departSpeed="random"/>
<vehicle id="e2w_114" type="stdSKVehicle" route="e2w" depart="90" departLane="random" departSpeed="random"/>
<vehicle id="w2n_115" type="stdSKVehicle" route="w2n" depart="90" departLane="random" departSpeed="random"/>
<vehicle id="w2e_116" type="stdSKVehicle" route="w2e" depart="91" departLane="random" departSpeed="random"/>
<vehicle id="e2s_117" type="stdSKVehicle" route="e2s" depart="93" departLane="random" departSpeed="random"/>
<vehicle id="w2e_118" type="stdSKVehicle" route="w2e" depart="93" departLane="random" departSpeed="random"/>
<vehicle id="n2s_119" type="stdSKVehicle" route="n2s" depart="94" departLane="random" departSpeed="random"/>
<vehicle id="w2e_120" type="stdSKVehicle" route="w2e" depart="95" departLane="random" departSpeed="random"/>
<vehicle id="e2w_121" type="stdSKVehicle" route="e2w" depart="96" departLane="random" departSpeed="random"/>
<vehicle id="s2e_122" type="stdSKVehicle" route="s2e" depart="96" departLane="random" departSpeed="random"/>
<vehicle id="n2s_123" type="stdSKVehicle" route="n2s" depart="97" departLane="random" departSpeed="random"/>
<vehicle id="w2e_124" type="stdSKVehicle" route="w2e" depart="98" departLane="random" departSpeed="random"/>
<vehicle id="e2s_125" type="stdSKVehicle" route="e2s" depart="99" departLane="random" departSpeed="random"/>
<vehicle id="w2e_126" type="stdSKVehicle" route="w2e" depart="99" departLane="random" departSpeed="random"/>
<vehicle id="e2w_127" type="stdSKVehicle" route="e2w" depart="101" departLane="random" departSpeed="random"/>
<vehicle id="e2w_128" type="stdSKVehicle" route="e2w" depart="102" departLane="random" departSpeed="random"/>
<vehicle id="e2n_129" type="stdSKVehicle" route="e2n" depart="102" departLane="random" departSpeed="random"/>
<vehicle id="e2w_130" type="stdSKVehicle" route="e2w" depart="104" departLane="random" departSpeed="random"/>
<vehicle id="s2e_131" type="stdSKVehicle" route="s2e" depart="104" departLane="random" departSpeed="random"/>
<vehicle id="w2e_132" type="stdSKVehicle" route="w2e" depart="106" departLane="random" departSpeed="random"/>
<vehicle id="w2e_133" type="stdSKVehicle" route="w2e" depart="107" departLane="random" departSpeed="random"/>
<vehicle id="w2n_134" type="stdSKVehicle" route="w2n" depart="107" departLane="random" departSpeed="random"/>
<vehicle id="e2w_135" type="stdSKVehicle" route="e2w" depart="108" departLane="random" departSpeed="random"/>
<vehicle id="n2s_136" type="stdSKVehicle" route="n2s" depart="110" departLane="random" departSpeed="random"/>
<vehicle id="e2w_137" type="stdSKVehicle" route="e2w" depart="110" departLane="random" departSpeed="random"/>
<vehicle id="e2s_138" type="stdSKVehicle" route="e2s" depart="111" departLane="random" departSpeed="random"/>
<vehicle id="s2n_139" type="stdSKVehicle" route="s2n" depart="113" departLane="random" departSpeed="random"/>
<vehicle id="w2n_140" type="stdSKVehicle" route="w2n" depart="113" departLane="random" departSpeed="random"/>
<vehicle id="s2e_141" type="stdSKVehicle" route="s2e" depart="114" departLane="random" departSpeed="random"/>
<vehicle id="e2w_142" type="stdSKVehicle" route="e2w" depart="115" departLane="random" departSpeed="random"/>
<vehicle id="e2s_143" type="stdSKVehicle" route="e2s" depart="115" departLane="random" departSpeed="random"/>
<vehicle id="n2s_144" type="stdSKVehicle" route="n2s" depart="116" departLane="random" departSpeed="random"/>
<vehicle id="s2n_145" type="stdSKVehicle" route="s2n" depart="116" departLane="random" departSpeed="random"/>
<vehicle id="w2e_146" type="stdSKVehicle" route="w2e" depart="116" departLane="random" departSpeed="random"/>
<vehicle id="e2w_147" type="stdSKVehicle" route="e2w" depart="117" departLane="random" departSpeed="random"/>
<vehicle id="e2n_148" type="stdSKVehicle" route="e2n" depart="118" departLane="random" departSpeed="random"/>
<vehicle id="w2e_149" type="stdSKVehicle" route="w2e" depart="118" departLane="random" departSpeed="random"/>
<vehicle id="w2e_150" type="stdSKVehicle" route="w2e" depart="119" departLane="random" departSpeed="random"/>
<vehicle id="e2w_151" type="stdSKVehicle" route="e2w" depart="121" departLane="random" departSpeed="random"/>
<vehicle id="n2s_152" type="stdSKVehicle" route="n2s" depart="123" departLane="random" departSpeed="random"/>
<vehicle id="e2w_153" type="stdSKVehicle" route="e2w" depart="123" departLane="random" departSpeed="random"/>
<vehicle id="n2s_154" type="stdSKVehicle" route="n2s" depart="124" departLane="random" departSpeed="random"/>
<vehicle id="e2s_155" type="stdSKVehicle" route="e2s" depart="124" departLane="random" departSpeed="random"/>
<vehicle id="w2n_156" type="stdSKVehicle" route="w2n" depart="126" departLane="random" departSpeed="random"/>
<vehicle id="w2e_157" type="stdSKVehicle" route="w2e" depart="127" departLane="random" departSpeed="random"/>
<vehicle id="e2n_158" type="stdSKVehicle" route="e2n" depart="129" departLane="random" departSpeed="random"/>
<vehicle id="n2s_159" type="stdSKVehicle" route="n2s" depart="130" departLane="random" departSpeed="random"/>
<vehicle id="e2w_160" type="stdSKVehicle" route="e2w" depart="130" departLane="random" departSpeed="random"/>
<vehicle id="s2w_161" type="stdSKVehicle" route="s2w" depart="131" departLane="random" departSpeed="random"/>
<vehicle id="w2e_162" type="stdSKVehicle" route="w2e" depart="131" departLane="random" departSpeed="random"/>
<vehicle id="w2s_163" type="stdSKVehicle" route="w2s" depart="131" departLane="random" departSpeed="random"/>
<vehicle id="e2w_164" type="stdSKVehicle" route="e2w" depart="132" departLane="random" departSpeed="random"/>
<vehicle id="w2e_165" type="stdSKVehicle" route="w2e" depart="132" departLane="random" departSpeed="random"/>
<vehicle id="e2w_166" type="stdSKVehicle" route="e2w" depart="133" departLane="random" departSpeed="random"/>
<vehicle id="w2e_167" type="stdSKVehicle" route="w2e" depart="135" departLane="random" departSpeed="random"/>
<vehicle id="n2s_168" type="stdSKVehicle" route="n2s" depart="136" departLane="random" departSpeed="random"/>
<vehicle id="n2s_169" type="stdSKVehicle" route="n2s" depart="138" departLane="random" departSpeed="random"/>
<vehicle id="w2e_170" type="stdSKVehicle" route="w2e" depart="138" departLane="random" departSpeed="random"/>
<vehicle id="w2e_171" type="stdSKVehicle" route="w2e" depart="139" departLane="random" departSpeed="random"/>
<vehicle id="e2w_172" type="stdSKVehicle" route="e2w" depart="140" departLane="random" departSpeed="random"/>
<vehicle id="w2e_173" type="stdSKVehicle" route="w2e" depart="141" departLane="random" departSpeed="random"/>
<vehicle id="s2n_174" type="stdSKVehicle" route="s2n" depart="142" departLane="random" departSpeed="random"/>
<vehicle id="w2s_175" type="stdSKVehicle" route="w2s" depart="144" departLane="random" departSpeed="random"/>
<vehicle id="w2e_176" type="stdSKVehicle" route="w2e" depart="145" departLane="random" departSpeed="random"/>
<vehicle id="w2n_177" type="stdSKVehicle" route="w2n" depart="145" departLane="random" departSpeed="random"/>
<vehicle id="n2e_178" type="stdSKVehicle" route="n2e" depart="146" departLane="random" departSpeed="random"/>
<vehicle id="n2e_179" type="stdSKVehicle" route="n2e" depart="149" departLane="random" departSpeed="random"/>
<vehicle id="n2w_180" type="stdSKVehicle" route="n2w" depart="150" departLane="random" departSpeed="random"/>
<vehicle id="w2e_181" type="stdSKVehicle" route="w2e" depart="150" departLane="random" departSpeed="random"/>
<vehicle id="e2w_182" type="stdSKVehicle" route="e2w" depart="151" departLane="random" departSpeed="random"/>
<vehicle id="e2w_183" type="stdSKVehicle" route="e2w" depart="153" departLane="random" departSpeed="random"/>
<vehicle id="e2w_184" type="stdSKVehicle" route="e2w" depart="154" departLane="random" departSpeed="random"/>
<vehicle id="e2w_185" type="stdSKVehicle" route="e2w" depart="156" departLane="random" departSpeed="random"/>
<vehicle id="s2n_186" type="stdSKVehicle" route="s2n" depart="158" departLane="random" departSpeed="random"/>
<vehicle id="w2e_187" type="stdSKVehicle" route="w2e" depart="158" departLane="random" departSpeed="random"/>
<vehicle id="w2e_188" type="stdSKVehicle" route="w2e" depart="159" departLane="random" departSpeed="random"/>
<vehicle id="e2w_189" type="stdSKVehicle" route="e2w" depart="162" departLane="random" departSpeed="random"/>
<vehicle id="n2e_190" type="stdSKVehicle" route="n2e" depart="163" departLane="random" departSpeed="random"/>
<vehicle id="w2e_191" type="stdSKVehicle" route="w2e" depart="163" departLane="random" departSpeed="random"/>
<vehicle id="w2s_192" type="stdSKVehicle" route="w2s" depart="164" departLane="random" departSpeed="random"/>
<vehicle id="w2n_193" type="stdSKVehicle" route="w2n" depart="171" departLane="random" departSpeed="random"/>
<vehicle id="w2e_194" type="stdSKVehicle" route="w2e" depart="172" departLane="random" departSpeed="random"/>
<vehicle id="e2s_195" type="stdSKVehicle" route="e2s" depart="173" departLane="random" departSpeed="random"/>
<vehicle id="e2w_196" type="stdSKVehicle" route="e2w" depart="174" departLane="random" departSpeed="random"/>
<vehicle id="s2w_197" type="stdSKVehicle" route="s2w" depart="174" departLane="random" departSpeed="random"/>
<vehicle id="w2e_198" type="stdSKVehicle" route="w2e" depart="175" departLane="random" departSpeed="random"/>
<vehicle id="e2w_199" type="stdSKVehicle" route="e2w" depart="176" departLane="random" departSpeed="random"/>
<vehicle id="n2s_200" type="stdSKVehicle" route="n2s" depart="177" departLane="random" departSpeed="random"/>
<vehicle id="e2w_201" type="stdSKVehicle" route="e2w" depart="177" departLane="random" departSpeed="random"/>
<vehicle id="s2n_202" type="stdSKVehicle" route="s2n" depart="177" departLane="random" departSpeed="random"/>
<vehicle id="w2e_203" type="stdSKVehicle" route="w2e" depart="179" departLane="random" departSpeed="random"/>
<vehicle id="e2w_204" type="stdSKVehicle" route="e2w" depart="180" departLane="random" departSpeed="random"/>
<vehicle id="s2n_205" type="stdSKVehicle" route="s2n" depart="180" departLane="random" departSpeed="random"/>
<vehicle id="e2n_206" type="stdSKVehicle" route="e2n" depart="182" departLane="random" departSpeed="random"/>
<vehicle id="n2s_207" type="stdSKVehicle" route="n2s" depart="185" departLane="random" departSpeed="random"/>
<vehicle id="w2e_208" type="stdSKVehicle" route="w2e" depart="185" departLane="random" departSpeed="random"/>
<vehicle id="w2n_209" type="stdSKVehicle" route="w2n" depart="185" departLane="random" departSpeed="random"/>
<vehicle id="w2e_210" type="stdSKVehicle" route="w2e" depart="186" departLane="random" departSpeed="random"/>
<vehicle id="n2s_211" type="stdSKVehicle" route="n2s" depart="188" departLane="random" departSpeed="random"/>
<vehicle id="e2w_212" type="stdSKVehicle" route="e2w" depart="188" departLane="random" departSpeed="random"/>
<vehicle id="e2s_213" type="stdSKVehicle" route="e2s" depart="189" departLane="random" departSpeed="random"/>
<vehicle id="e2n_214" type="stdSKVehicle" route="e2n" depart="189" departLane="random" departSpeed="random"/>
<vehicle id="w2e_215" type="stdSKVehicle" route="w2e" depart="189" departLane="random" departSpeed="random"/>
<vehicle id="w2e_216" type="stdSKVehicle" route="w2e" depart="191" departLane="random" departSpeed="random"/>
<vehicle id="n2s_217" type="stdSKVehicle" route="n2s" depart="192" departLane="random" departSpeed="random"/>
<vehicle id="s2n_218" type="stdSKVehicle" route="s2n" depart="192" departLane="random" departSpeed="random"/>
<vehicle id="w2e_219" type="stdSKVehicle" route="w2e" depart="192" departLane="random" departSpeed="random"/>
<vehicle id="w2e_220" type="stdSKVehicle" route="w2e" depart="193" departLane="random" departSpeed="random"/>
<vehicle id="w2e_221" type="stdSKVehicle" route="w2e" depart="194" departLane="random" departSpeed="random"/>
<vehicle id="n2s_222" type="stdSKVehicle" route="n2s" depart="195" departLane="random" departSpeed="random"/>
<vehicle id="e2w_223" type="stdSKVehicle" route="e2w" depart="195" departLane="random" departSpeed="random"/>
<vehicle id="s2w_224" type="stdSKVehicle" route="s2w" depart="195" departLane="random" departSpeed="random"/>
<vehicle id="w2n_225" type="stdSKVehicle" route="w2n" depart="197" departLane="random" departSpeed="random"/>
<vehicle id="w2e_226" type="stdSKVehicle" route="w2e" depart="198" departLane="random" departSpeed="random"/>
<vehicle id="w2s_227" type="stdSKVehicle" route="w2s" depart="198" departLane="random" departSpeed="random"/>
<vehicle id="n2s_228" type="stdSKVehicle" route="n2s" depart="199" departLane="random" departSpeed="random"/>
<vehicle id="e2w_229" type="stdSKVehicle" route="e2w" depart="199" departLane="random" departSpeed="random"/>
<vehicle id="w2e_230" type="stdSKVehicle" route="w2e" depart="199" departLane="random" departSpeed="random"/>
<vehicle id="n2e_231" type="stdSKVehicle" route="n2e" depart="201" departLane="random" departSpeed="random"/>
<vehicle id="e2n_232" type="stdSKVehicle" route="e2n" depart="201" departLane="random" departSpeed="random"/>
<vehicle id="w2e_233" type="stdSKVehicle" route="w2e" depart="201" departLane="random" departSpeed="random"/>
<vehicle id="w2s_234" type="stdSKVehicle" route="w2s" depart="202" departLane="random" departSpeed="random"/>
<vehicle id="w2e_235" type="stdSKVehicle" route="w2e" depart="203" departLane="random" departSpeed="random"/>
<vehicle id="e2w_236" type="stdSKVehicle" route="e2w" depart="204" departLane="random" departSpeed="random"/>
<vehicle id="s2e_237" type="stdSKVehicle" route="s2e" depart="204" departLane="random" departSpeed="random"/>
<vehicle id="w2e_238" type="stdSKVehicle" route="w2e" depart="206" departLane="random" departSpeed="random"/>
<vehicle id="w2s_239" type="stdSKVehicle" route="w2s" depart="206" departLane="random" departSpeed="random"/>
<vehicle id="n2e_240" type="stdSKVehicle" route="n2e" depart="208" departLane="random" departSpeed="random"/>
<vehicle id="w2e_241" type="stdSKVehicle" route="w2e" depart="210" departLane="random" departSpeed="random"/>
<vehicle id="n2s_242" type="stdSKVehicle" route="n2s" depart="211" departLane="random" departSpeed="random"/>
<vehicle id="e2s_243" type="stdSKVehicle" route="e2s" depart="211" departLane="random" departSpeed="random"/>
<vehicle id="w2e_244" type="stdSKVehicle" route="w2e" depart="211" departLane="random" departSpeed="random"/>
<vehicle id="s2n_245" type="stdSKVehicle" route="s2n" depart="212" departLane="random" departSpeed="random"/>
<vehicle id="w2e_246" type="stdSKVehicle" route="w2e" depart="212" departLane="random" departSpeed="random"/>
<vehicle id="w2n_247" type="stdSKVehicle" route="w2n" depart="212" departLane="random" departSpeed="random"/>
<vehicle id="e2n_248" type="stdSKVehicle" route="e2n" depart="214" departLane="random" departSpeed="random"/>
<vehicle id="w2e_249" type="stdSKVehicle" route="w2e" depart="214" departLane="random" departSpeed="random"/>
<vehicle id="n2s_250" type="stdSKVehicle" route="n2s" depart="215" departLane="random" departSpeed="random"/>
<vehicle id="w2n_251" type="stdSKVehicle" route="w2n" depart="216" departLane="random" departSpeed="random"/>
<vehicle id="e2w_252" type="stdSKVehicle" route="e2w" depart="217" departLane="random" departSpeed="random"/>
<vehicle id="w2e_253" type="stdSKVehicle" route="w2e" depart="217" departLane="random" departSpeed="random"/>
<vehicle id="w2e_254" type="stdSKVehicle" route="w2e" depart="218" departLane="random" departSpeed="random"/>
<vehicle id="e2w_255" type="stdSKVehicle" route="e2w" depart="219" departLane="random" departSpeed="random"/>
<vehicle id="w2e_256" type="stdSKVehicle" route="w2e" depart="219" departLane="random" departSpeed="random"/>
<vehicle id="n2s_257" type="stdSKVehicle" route="n2s" depart="221" departLane="random" departSpeed="random"/>
<vehicle id="w2e_258" type="stdSKVehicle" route="w2e" depart="221" departLane="random" departSpeed="random"/>
<vehicle id="e2w_259" type="stdSKVehicle" route="e2w" depart="222" departLane="random" departSpeed="random"/>
<vehicle id="e2w_260" type="stdSKVehicle" route="e2w" depart="223" departLane="random" departSpeed="random"/>
<vehicle id="n2s_261" type="stdSKVehicle" route="n2s" depart="224" departLane="random" departSpeed="random"/>
<vehicle id="e2n_262" type="stdSKVehicle" route="e2n" depart="224" departLane="random" departSpeed="random"/>
<vehicle id="w2e_263" type="stdSKVehicle" route="w2e" depart="225" departLane="random" departSpeed="random"/>
<vehicle id="w2e_264" type="stdSKVehicle" route="w2e" depart="227" departLane="random" departSpeed="random"/>
<vehicle id="s2n_265" type="stdSKVehicle" route="s2n" depart="228" departLane="random" departSpeed="random"/>